<?xml version="1.0" encoding="UTF-8"?>
<!DOCTYPE network SYSTEM "http://www.matsim.org/files/dtd/network_v2.dtd">
<network name="expanded-zez-test-network">
    <nodes>
        <!-- Original nodes -->
        <node id="1" x="0" y="0" />
        <node id="2" x="1000" y="0" />
        <node id="3" x="2000" y="0" />
        <node id="4" x="3000" y="0" />
        <!-- Bypass route nodes -->
        <node id="5" x="1000" y="1000" />
        <node id="6" x="2000" y="1000" />
        <!-- Additional activity locations -->
        <node id="7" x="1500" y="-1000" />
        <node id="8" x="2500" y="-1000" />
    </nodes>
    <links>
        <!-- Main route links -->
        <link id="1" from="1" to="2" length="1000.00" capacity="2000" freespeed="13.89" permlanes="2" modes="car"/>
        
        <!-- ZEZ links -->
        <link id="2" from="2" to="3" length="1000.00" capacity="2000" freespeed="13.89" permlanes="2" modes="car">
            <attributes>
                <attribute name="type" class="java.lang.String">zero_emission_zone</attribute>
                <attribute name="zoneType" class="java.lang.String">restricted</attribute>
            </attributes>
        </link>
        
        <link id="3" from="3" to="4" length="1000.00" capacity="2000" freespeed="13.89" permlanes="2" modes="car"/>
        
        <!-- Return route -->
        <link id="4" from="4" to="3" length="1000.00" capacity="2000" freespeed="13.89" permlanes="2" modes="car"/>
        <link id="5" from="3" to="2" length="1000.00" capacity="2000" freespeed="13.89" permlanes="2" modes="car">
            <attributes>
                <attribute name="type" class="java.lang.String">zero_emission_zone</attribute>
                <attribute name="zoneType" class="java.lang.String">restricted</attribute>
            </attributes>
        </link>
        <link id="6" from="2" to="1" length="1000.00" capacity="2000" freespeed="13.89" permlanes="2" modes="car"/>
        
        <!-- Northern bypass (longer but unrestricted) -->
        <link id="7" from="2" to="5" length="1000.00" capacity="1500" freespeed="11.11" permlanes="1" modes="car"/>
        <link id="8" from="5" to="6" length="1000.00" capacity="1500" freespeed="11.11" permlanes="1" modes="car"/>
        <link id="9" from="6" to="3" length="1000.00" capacity="1500" freespeed="11.11" permlanes="1" modes="car"/>
        
        <!-- Return northern bypass -->
        <link id="10" from="3" to="6" length="1000.00" capacity="1500" freespeed="11.11" permlanes="1" modes="car"/>
        <link id="11" from="6" to="5" length="1000.00" capacity="1500" freespeed="11.11" permlanes="1" modes="car"/>
        <link id="12" from="5" to="2" length="1000.00" capacity="1500" freespeed="11.11" permlanes="1" modes="car"/>
        
        <!-- Additional activity location connections -->
        <link id="13" from="2" to="7" length="1500.00" capacity="1000" freespeed="13.89" permlanes="1" modes="car"/>
        <link id="14" from="7" to="2" length="1500.00" capacity="1000" freespeed="13.89" permlanes="1" modes="car"/>
        <link id="15" from="3" to="8" length="1500.00" capacity="1000" freespeed="13.89" permlanes="1" modes="car"/>
        <link id="16" from="8" to="3" length="1500.00" capacity="1000" freespeed="13.89" permlanes="1" modes="car"/>
    </links>
</network>