<?xml version="1.0" encoding="UTF-8"?>
<!DOCTYPE network SYSTEM "http://www.matsim.org/files/dtd/network_v2.dtd">
<network name="Two-way network with ZEZ zone">
    <nodes>
        <node id="1" x="0" y="0"/>
        <node id="2" x="100" y="0"/>
        <node id="3" x="200" y="0"/>
        <node id="4" x="300" y="0"/>
        <node id="5" x="150" y="100"/>
    </nodes>

    <links capperiod="01:00:00">
        <link id="1" from="1" to="2" length="100.00" capacity="2000" freespeed="13.89" permlanes="1" modes="car" />
        <link id="2" from="2" to="1" length="100.00" capacity="2000" freespeed="13.89" permlanes="1" modes="car" />

        <link id="3" from="2" to="3" length="100.00" capacity="2000" freespeed="13.89" permlanes="1" modes="car">
            <attributes>
                <attribute name="type" class="java.lang.String">zez</attribute>
            </attributes>
        </link>
        <link id="4" from="3" to="2" length="100.00" capacity="2000" freespeed="13.89" permlanes="1" modes="car">
            <attributes>
                <attribute name="type" class="java.lang.String">zez</attribute>
            </attributes>
        </link>

        <link id="5" from="3" to="4" length="100.00" capacity="2000" freespeed="13.89" permlanes="1" modes="car" />
        <link id="6" from="4" to="3" length="100.00" capacity="2000" freespeed="13.89" permlanes="1" modes="car" />

        <link id="7" from="2" to="5" length="141.42" capacity="3000" freespeed="16.67" permlanes="2" modes="car">
            <attributes>
                <attribute name="type" class="java.lang.String">bypass</attribute>
            </attributes>
        </link>
        <link id="8" from="5" to="2" length="141.42" capacity="3000" freespeed="16.67" permlanes="2" modes="car">
            <attributes>
                <attribute name="type" class="java.lang.String">bypass</attribute>
            </attributes>
        </link>
        <link id="9" from="3" to="5" length="141.42" capacity="3000" freespeed="16.67" permlanes="2" modes="car">
            <attributes>
                <attribute name="type" class="java.lang.String">bypass</attribute>
            </attributes>
        </link>
        <link id="10" from="5" to="3" length="141.42" capacity="3000" freespeed="16.67" permlanes="2" modes="car">
            <attributes>
                <attribute name="type" class="java.lang.String">bypass</attribute>
            </attributes>
        </link>
    </links>
</network>
